src/test/resources/loadflowreferences/loadflow_1888rte_basic.xiidm
<?xml version="1.0" encoding="UTF-8"?>
<iidm:network xmlns:iidm="http://www.powsybl.org/schema/iidm/1_8" xmlns:slt="http://www.powsybl.org/schema/iidm/ext/slack_terminal/1_5" id="case1888rte" caseDate="2022-11-24T17:32:32.244+01:00" forecastDistance="0" sourceFormat="MATPOWER" minimumValidationLevel="STEADY_STATE_HYPOTHESIS">
    <iidm:substation id="SUB-1">
        <iidm:voltageLevel id="VL-1" nominalV="1.0" lowVoltageLimit="0.888889" highVoltageLimit="1.08889" topologyKind="BUS_BREAKER">
            <iidm:busBreakerTopology>
                <iidm:bus id="BUS-1" v="1.032210925951139" angle="-43.42732593038852"/>
            </iidm:busBreakerTopology>
            <iidm:load id="LOAD-1" loadType="UNDEFINED" p0="5.8" q0="-5.8" bus="BUS-1" connectableBus="BUS-1" p="5.8" q="-5.8"/>
        </iidm:voltageLevel>
    </iidm:substation>
    <iidm:substation id="SUB-2">
        <iidm:voltageLevel id="VL-2" nominalV="1.0" lowVoltageLimit="1.04841" highVoltageLimit="1.10263" topologyKind="BUS_BREAKER">
            <iidm:busBreakerTopology>
                <iidm:bus id="BUS-2" v="1.052049159561084" angle="-1.6203117959120918"/>
            </iidm:busBreakerTopology>
        </iidm:voltageLevel>
    </iidm:substation>
    <iidm:substation id="SUB-3">
        <iidm:voltageLevel id="VL-3" nominalV="1.0" lowVoltageLimit="1.00444" highVoltageLimit="1.08444" topologyKind="BUS_BREAKER">
            <iidm:busBreakerTopology>
                <iidm:bus id="BUS-3" v="1.0448933409469892" angle="-18.246274157378323"/>
            </iidm:busBreakerTopology>
            <iidm:load id="LOAD-3" loadType="UNDEFINED" p0="142.5" q0="-13.4" bus="BUS-3" connectableBus="BUS-3" p="142.5" q="-13.4"/>
        </iidm:voltageLevel>
    </iidm:substation>
    <iidm:substation id="SUB-4">
        <iidm:voltageLevel id="VL-4" nominalV="1.0" lowVoltageLimit="1.03601" highVoltageLimit="1.08889" topologyKind="BUS_BREAKER">
            <iidm:busBreakerTopology>
                <iidm:bus id="BUS-4" v="1.0646174815433407" angle="-20.546287697617252"/>
                <iidm:bus id="BUS-6" v="1.0605861611395542" angle="-25.239068286620476"/>
                <iidm:bus id="BUS-1576" v="1.0637460702552741" angle="-25.904031212075218"/>
            </iidm:busBreakerTopology>
            <iidm:load id="LOAD-6" loadType="UNDEFINED" p0="40.2" q0="4.0" bus="BUS-6" connectableBus="BUS-6" p="40.2" q="4.0"/>
        </iidm:voltageLevel>
        <iidm:twoWindingsTransformer id="TWT-4-6" r="3.5560000000000005E-5" x="0.00120296" g="0.0" b="0.0" ratedU1="0.978474" ratedU2="1.0" bus1="BUS-4" connectableBus1="BUS-4" voltageLevelId1="VL-4" bus2="BUS-6" connectableBus2="BUS-6" voltageLevelId2="VL-4" p1="79.24016298482061" q1="25.70321978189452" p2="-79.03170848584216" q2="-18.65140808079479"/>
        <iidm:twoWindingsTransformer id="TWT-6-1576" r="1.8000000000000001E-6" x="-6.163E-5" g="0.0" b="0.0" ratedU1="0.999001" ratedU2="1.0" bus1="BUS-6" connectableBus1="BUS-6" voltageLevelId1="VL-4" bus2="BUS-1576" connectableBus2="BUS-1576" voltageLevelId2="VL-4" p1="-213.5005247931014" q1="28.69355342927273" p2="213.57463613001832" q2="-31.231043259379998">
            <iidm:apparentPowerLimits1 permanentLimit="1186.0">
                <iidm:temporaryLimit name="RateB" acceptableDuration="1200" value="1186.0"/>
                <iidm:temporaryLimit name="RateC" acceptableDuration="60" value="1186.0"/>
            </iidm:apparentPowerLimits1>
            <iidm:apparentPowerLimits2 permanentLimit="1186.0">
                <iidm:temporaryLimit name="RateB" acceptableDuration="1200" value="1186.0"/>
                <iidm:temporaryLimit name="RateC" acceptableDuration="60" value="1186.0"/>
            </iidm:apparentPowerLimits2>
        </iidm:twoWindingsTransformer>
    </iidm:substation>
    <iidm:substation id="SUB-5">
        <iidm:voltageLevel id="VL-5" nominalV="1.0" lowVoltageLimit="1.02519" highVoltageLimit="1.08889" topologyKind="BUS_BREAKER">
            <iidm:busBreakerTopology>
                <iidm:bus id="BUS-5" v="1.0616263349718733" angle="-24.928614073924603"/>
                <iidm:bus id="BUS-1599" v="1.064899083620948" angle="-25.515449177338137"/>
            </iidm:busBreakerTopology>
            <iidm:load id="LOAD-5" loadType="UNDEFINED" p0="32.8" q0="-5.3" bus="BUS-5" connectableBus="BUS-5" p="32.8" q="-5.3"/>
        </iidm:voltageLevel>
        <iidm:twoWindingsTransformer id="TWT-5-1599" r="1.8000000000000001E-6" x="-6.163E-5" g="0.0" b="0.0" ratedU1="0.999001" ratedU2="1.0" bus1="BUS-5" connectableBus1="BUS-5" voltageLevelId1="VL-5" bus2="BUS-1599" connectableBus2="BUS-1599" voltageLevelId2="VL-5" p1="-188.98916984254467" q1="31.64363648289742" p2="189.04769501144804" q2="-33.647473238184695">
            <iidm:apparentPowerLimits1 permanentLimit="1188.0">
                <iidm:temporaryLimit name="RateB" acceptableDuration="1200" value="1188.0"/>
                <iidm:temporaryLimit name="RateC" acceptableDuration="60" value="1188.0"/>
            </iidm:apparentPowerLimits1>
            <iidm:apparentPowerLimits2 permanentLimit="1188.0">
                <iidm:temporaryLimit name="RateB" acceptableDuration="1200" value="1188.0"/>
                <iidm:temporaryLimit name="RateC" acceptableDuration="60" value="1188.0"/>
            </iidm:apparentPowerLimits2>
        </iidm:twoWindingsTransformer>
    </iidm:substation>
    <iidm:substation id="SUB-7">
        <iidm:voltageLevel id="VL-7" nominalV="1.0" lowVoltageLimit="1.03947" highVoltageLimit="1.10526" topologyKind="BUS_BREAKER">
            <iidm:busBreakerTopology>
                <iidm:bus id="BUS-7" v="1.0538207995007538" angle="-21.40868189780598"/>
            </iidm:busBreakerTopology>
        </iidm:voltageLevel>
    </iidm:substation>
    <iidm:substation id="SUB-8">
        <iidm:voltageLevel id="VL-8" nominalV="1.0" lowVoltageLimit="1.03947" highVoltageLimit="1.10526" topologyKind="BUS_BREAKER">
            <iidm:busBreakerTopology>
                <iidm:bus id="BUS-8" v="1.0570998057421206" angle="-22.543895040036976"/>
            </iidm:busBreakerTopology>
        </iidm:voltageLevel>
    </iidm:substation>
    <iidm:substation id="SUB-9">
        <iidm:voltageLevel id="VL-9" nominalV="1.0" lowVoltageLimit="1.00444" highVoltageLimit="1.09035" topologyKind="BUS_BREAKER">
            <iidm:busBreakerTopology>
                <iidm:bus id="BUS-9" v="1.0479546697680882" angle="-36.448457621918756"/>
            </iidm:busBreakerTopology>
        </iidm:voltageLevel>
    </iidm:substation>
    <iidm:substation id="SUB-10">
        <iidm:voltageLevel id="VL-10" nominalV="1.0" lowVoltageLimit="0.933333" highVoltageLimit="1.08889" topologyKind="BUS_BREAKER">
            <iidm:busBreakerTopology>
                <iidm:bus id="BUS-10" v="1.0443990384003603" angle="-29.16314022118401"/>
            </iidm:busBreakerTopology>
            <iidm:load id="LOAD-10" loadType="UNDEFINED" p0="148.8" q0="14.9" bus="BUS-10" connectableBus="BUS-10" p="148.8" q="14.9"/>
        </iidm:voltageLevel>
    </iidm:substation>
    <iidm:substation id="SUB-11">
        <iidm:voltageLevel id="VL-11" nominalV="1.0" lowVoltageLimit="1.00444" highVoltageLimit="1.08889" topologyKind="BUS_BREAKER">
            <iidm:busBreakerTopology>
                <iidm:bus id="BUS-11" v="1.0432804686397255" angle="-40.7724650048527"/>
            </iidm:busBreakerTopology>
            <iidm:load id="LOAD-11" loadType="UNDEFINED" p0="25.6" q0="5.0" bus="BUS-11" connectableBus="BUS-11" p="25.6" q="5.0"/>
        </iidm:voltageLevel>
    </iidm:substation>
    <iidm:substation id="SUB-12">
        <iidm:voltageLevel id="VL-12" nominalV="1.0" lowVoltageLimit="1.00444" highVoltageLimit="1.08889" topologyKind="BUS_BREAKER">
            <iidm:busBreakerTopology>
                <iidm:bus id="BUS-12" v="1.0228908908161671" angle="-40.305522132340315"/>
            </iidm:busBreakerTopology>
            <iidm:load id="LOAD-12" loadType="UNDEFINED" p0="39.1" q0="8.7" bus="BUS-12" connectableBus="BUS-12" p="39.1" q="8.7"/>
        </iidm:voltageLevel>
    </iidm:substation>
    <iidm:substation id="SUB-13">
        <iidm:voltageLevel id="VL-13" nominalV="1.0" lowVoltageLimit="1.00444" highVoltageLimit="1.08889" topologyKind="BUS_BREAKER">
            <iidm:busBreakerTopology>
                <iidm:bus id="BUS-13" v="1.0432652581954056" angle="-40.76960317424066"/>
            </iidm:busBreakerTopology>
            <iidm:load id="LOAD-13" loadType="UNDEFINED" p0="70.5" q0="17.2" bus="BUS-13" connectableBus="BUS-13" p="70.5" q="17.2"/>
        </iidm:voltageLevel>
    </iidm:substation>
    <iidm:substation id="SUB-14">
        <iidm:voltageLevel id="VL-14" nominalV="1.0" lowVoltageLimit="0.95" highVoltageLimit="1.08252" topologyKind="BUS_BREAKER">
            <iidm:busBreakerTopology>
                <iidm:bus id="BUS-14" v="1.029" angle="-42.50120769382035"/>
            </iidm:busBreakerTopology>
            <iidm:generator id="GEN-14" energySource="OTHER" minP="5.52" maxP="27.6" voltageRegulatorOn="true" targetP="2.38" targetV="1.029" targetQ="0.0" bus="BUS-14" connectableBus="BUS-14" p="-2.38" q="0.101541562415288">
                <iidm:minMaxReactiveLimits minQ="0.0" maxQ="0.0"/>
            </iidm:generator>
            <iidm:generator id="GEN-14#0" energySource="OTHER" minP="4.8" maxP="24.0" voltageRegulatorOn="true" targetP="0.64" targetV="1.029" targetQ="0.0" bus="BUS-14" connectableBus="BUS-14" p="-0.64" q="0.101541562415288">
                <iidm:minMaxReactiveLimits minQ="0.0" maxQ="0.0"/>
            </iidm:generator>
            <iidm:load id="LOAD-14" loadType="UNDEFINED" p0="36.0" q0="-4.2" bus="BUS-14" connectableBus="BUS-14" p="36.0" q="-4.2"/>
        </iidm:voltageLevel>
    </iidm:substation>
    <iidm:substation id="SUB-15">
        <iidm:voltageLevel id="VL-15" nominalV="1.0" lowVoltageLimit="1.00444" highVoltageLimit="1.05" topologyKind="BUS_BREAKER">
            <iidm:busBreakerTopology>
                <iidm:bus id="BUS-15" v="1.0527158735350304" angle="-32.72106082412415"/>
                <iidm:bus id="BUS-1678" v="0.957" angle="-29.1283132586116"/>
            </iidm:busBreakerTopology>
            <iidm:generator id="GEN-1678" energySource="OTHER" minP="8.5" maxP="95.0" voltageRegulatorOn="true" targetP="91.0" targetV="0.957" targetQ="-0.46" bus="BUS-1678" connectableBus="BUS-1678" p="-91.0" q="-0.6923793019436943">
                <iidm:minMaxReactiveLimits minQ="-61.4" maxQ="104.12"/>
            </iidm:generator>
            <iidm:load id="LOAD-1678" loadType="UNDEFINED" p0="3.5" q0="2.2" bus="BUS-1678" connectableBus="BUS-1678" p="3.5000000000000004" q="2.2"/>
        </iidm:voltageLevel>
        <iidm:twoWindingsTransformer id="TWT-15-1678" r="0.0" x="6.579E-4" g="0.0" b="0.0" ratedU1="1.096667" ratedU2="1.0" bus1="BUS-15" connectableBus1="BUS-15" voltageLevelId1="VL-15" bus2="BUS-1678" connectableBus2="BUS-1678" voltageLevelId2="VL-15" p1="-87.49996466150351" q1="7.0091151153356055" p2="87.49996466150351" q2="-1.5076206980563058"/>
    </iidm:substation>
    <iidm:substation id="SUB-16">
        <iidm:voltageLevel id="VL-16" nominalV="1.0" lowVoltageLimit="1.00444" highVoltageLimit="1.05" topologyKind="BUS_BREAKER">
            <iidm:busBreakerTopology>
                <iidm:bus id="BUS-16" v="1.0527162749523695" angle="-32.721063646597266"/>
                <iidm:bus id="BUS-1679" v="0.957" angle="-29.128317452834793"/>
            </iidm:busBreakerTopology>
            <iidm:generator id="GEN-1679" energySource="OTHER" minP="8.5" maxP="95.0" voltageRegulatorOn="true" targetP="91.0" targetV="0.957" targetQ="-0.45" bus="BUS-1679" connectableBus="BUS-1679" p="-91.0" q="-0.6918458101396228">
                <iidm:minMaxReactiveLimits minQ="-61.58" maxQ="103.94"/>
            </iidm:generator>
            <iidm:load id="LOAD-1679" loadType="UNDEFINED" p0="3.5" q0="2.2" bus="BUS-1679" connectableBus="BUS-1679" p="3.5000000000000004" q="2.2"/>
        </iidm:voltageLevel>
        <iidm:twoWindingsTransformer id="TWT-16-1679" r="0.0" x="6.579E-4" g="0.0" b="0.0" ratedU1="1.096667" ratedU2="1.0" bus1="BUS-16" connectableBus1="BUS-16" voltageLevelId1="VL-16" bus2="BUS-1679" connectableBus2="BUS-1679" voltageLevelId2="VL-16" p1="-87.49996466198208" q1="7.009649762946571" p2="87.49996466198208" q2="-1.5081541898603774"/>
    </iidm:substation>
    <iidm:substation id="SUB-17">
        <iidm:voltageLevel id="VL-17" nominalV="1.0" lowVoltageLimit="0.888889" highVoltageLimit="1.08889" topologyKind="BUS_BREAKER">
            <iidm:busBreakerTopology>
                <iidm:bus id="BUS-17" v="1.0290858037900688" angle="-42.53203027388426"/>
            </iidm:busBreakerTopology>
            <iidm:load id="LOAD-17" loadType="UNDEFINED" p0="23.7" q0="-12.4" bus="BUS-17" connectableBus="BUS-17" p="23.7" q="-12.4"/>
        </iidm:voltageLevel>
    </iidm:substation>
    <iidm:substation id="SUB-18">
        <iidm:voltageLevel id="VL-18" nominalV="1.0" lowVoltageLimit="0.986667" highVoltageLimit="1.09633" topologyKind="BUS_BREAKER">
            <iidm:busBreakerTopology>
                <iidm:bus id="BUS-18" v="1.0384217279376928" angle="-34.761185882876106"/>
            </iidm:busBreakerTopology>
            <iidm:load id="LOAD-18" loadType="UNDEFINED" p0="5.9" q0="-4.8" bus="BUS-18" connectableBus="BUS-18" p="5.9" q="-4.8"/>
        </iidm:voltageLevel>
    </iidm:substation>
    <iidm:substation id="SUB-19">
        <iidm:voltageLevel id="VL-19" nominalV="1.0" lowVoltageLimit="1.00444" highVoltageLimit="1.08889" topologyKind="BUS_BREAKER">
            <iidm:busBreakerTopology>
                <iidm:bus id="BUS-19" v="1.0358971359716385" angle="-40.88298677340357"/>
            </iidm:busBreakerTopology>
            <iidm:load id="LOAD-19" loadType="UNDEFINED" p0="34.0" q0="3.7" bus="BUS-19" connectableBus="BUS-19" p="34.0" q="3.7"/>
        </iidm:voltageLevel>
    </iidm:substation>
    <iidm:substation id="SUB-20">
        <iidm:voltageLevel id="VL-20" nominalV="1.0" lowVoltageLimit="1.00444" highVoltageLimit="1.08889" topologyKind="BUS_BREAKER">
            <iidm:busBreakerTopology>
                <iidm:bus id="BUS-20" v="1.0359237457184123" angle="-40.880688127777816"/>
            </iidm:busBreakerTopology>
            <iidm:load id="LOAD-20" loadType="UNDEFINED" p0="6.9" q0="0.8" bus="BUS-20" connectableBus="BUS-20" p="6.9" q="0.8"/>
        </iidm:voltageLevel>
    </iidm:substation>
    <iidm:substation id="SUB-21">
        <iidm:voltageLevel id="VL-21" nominalV="1.0" lowVoltageLimit="1.00444" highVoltageLimit="1.08889" topologyKind="BUS_BREAKER">
            <iidm:busBreakerTopology>
                <iidm:bus id="BUS-21" v="1.0456902270894293" angle="-37.62700345310871"/>
            </iidm:busBreakerTopology>
            <iidm:load id="LOAD-21" loadType="UNDEFINED" p0="9.2" q0="-29.1" bus="BUS-21" connectableBus="BUS-21" p="9.2" q="-29.1"/>
        </iidm:voltageLevel>
    </iidm:substation>
    <iidm:substation id="SUB-22">
        <iidm:voltageLevel id="VL-22" nominalV="1.0" lowVoltageLimit="0.986667" highVoltageLimit="1.08889" topologyKind="BUS_BREAKER">
            <iidm:busBreakerTopology>
                <iidm:bus id="BUS-22" v="1.0452783111639685" angle="-37.95179037537505"/>
            </iidm:busBreakerTopology>
            <iidm:load id="LOAD-22" loadType="UNDEFINED" p0="67.7" q0="-3.6" bus="BUS-22" connectableBus="BUS-22" p="67.7" q="-3.6"/>
        </iidm:voltageLevel>
    </iidm:substation>
    <iidm:substation id="SUB-23">
        <iidm:voltageLevel id="VL-23" nominalV="1.0" lowVoltageLimit="0.888889" highVoltageLimit="1.08889" topologyKind="BUS_BREAKER">
            <iidm:busBreakerTopology>
                <iidm:bus id="BUS-23" v="1.0216510991398238" angle="-46.95208525104966"/>
            </iidm:busBreakerTopology>
            <iidm:load id="LOAD-23" loadType="UNDEFINED" p0="25.4" q0="-2.7" bus="BUS-23" connectableBus="BUS-23" p="25.4" q="-2.7"/>
        </iidm:voltageLevel>
    </iidm:substation>
    <iidm:substation id="SUB-25">
        <iidm:voltageLevel id="VL-25" nominalV="1.0" lowVoltageLimit="1.00889" highVoltageLimit="1.08444" topologyKind="BUS_BREAKER">
            <iidm:busBreakerTopology>
                <iidm:bus id="BUS-25" v="1.0544165270157564" angle="-16.43221603965044"/>
            </iidm:busBreakerTopology>
            <iidm:load id="LOAD-25" loadType="UNDEFINED" p0="64.0" q0="4.6" bus="BUS-25" connectableBus="BUS-25" p="64.0" q="4.6"/>
        </iidm:voltageLevel>
    </iidm:substation>
    <iidm:substation id="SUB-27">
        <iidm:voltageLevel id="VL-27" nominalV="1.0" lowVoltageLimit="0.933333" highVoltageLimit="1.08889" topologyKind="BUS_BREAKER">
            <iidm:busBreakerTopology>
                <iidm:bus id="BUS-27" v="1.0209721563127134" angle="-19.84895105646352"/>
            </iidm:busBreakerTopology>
            <iidm:load id="LOAD-27" loadType="UNDEFINED" p0="71.6" q0="46.7" bus="BUS-27" connectableBus="BUS-27" p="71.6" q="46.7"/>
        </iidm:voltageLevel>
    </iidm:substation>
    <iidm:substation id="SUB-28">
        <iidm:voltageLevel id="VL-28" nominalV="1.0" lowVoltageLimit="1.00444" highVoltageLimit="1.08889" topologyKind="BUS_BREAKER">
            <iidm:busBreakerTopology>
                <iidm:bus id="BUS-28" v="1.0373906177514793" angle="-35.80513611848333"/>
            </iidm:busBreakerTopology>
            <iidm:load id="LOAD-28" loadType="UNDEFINED" p0="105.4" q0="6.9" bus="BUS-28" connectableBus="BUS-28" p="105.4" q="6.9"/>
        </iidm:voltageLevel>
    </iidm:substation>
    <iidm:substation id="SUB-29">
        <iidm:voltageLevel id="VL-29" nominalV="1.0" lowVoltageLimit="1.04842" highVoltageLimit="1.05" topologyKind="BUS_BREAKER">
            <iidm:busBreakerTopology>
                <iidm:bus id="BUS-29" v="1.0520159567000227" angle="-1.6067008997082635"/>
                <iidm:bus id="BUS-1628" v="0.95" angle="0.8655182642261742"/>
            </iidm:busBreakerTopology>
            <iidm:generator id="GEN-1628" energySource="OTHER" minP="200.0" maxP="670.0" voltageRegulatorOn="true" targetP="200.0" targetV="0.95" targetQ="-60.27" bus="BUS-1628" connectableBus="BUS-1628" p="-200.0" q="59.662575757476155">
                <iidm:minMaxReactiveLimits minQ="-217.55" maxQ="155.3"/>
            </iidm:generator>
        </iidm:voltageLevel>
        <iidm:twoWindingsTransformer id="TWT-29-1628" r="0.0" x="1.9737000000000002E-4" g="0.0" b="0.0" ratedU1="1.092105" ratedU2="1.0" bus1="BUS-29" connectableBus1="BUS-29" voltageLevelId1="VL-29" bus2="BUS-1628" connectableBus2="BUS-1628" voltageLevelId2="VL-29" p1="-199.99998518164844" q1="69.18873820731157" p2="199.99998518164844" q2="-59.662575757476155">
            <iidm:apparentPowerLimits1 permanentLimit="254.0">
                <iidm:temporaryLimit name="RateB" acceptableDuration="1200" value="254.0"/>
                <iidm:temporaryLimit name="RateC" acceptableDuration="60" value="254.0"/>
            </iidm:apparentPowerLimits1>
            <iidm:apparentPowerLimits2 permanentLimit="254.0">
                <iidm:temporaryLimit name="RateB" acceptableDuration="1200" value="254.0"/>
                <iidm:temporaryLimit name="RateC" acceptableDuration="60" value="254.0"/>
            </iidm:apparentPowerLimits2>
        </iidm:twoWindingsTransformer>
    </iidm:substation>
    <iidm:substation id="SUB-30">
        <iidm:voltageLevel id="VL-30" nominalV="1.0" lowVoltageLimit="1.04842" highVoltageLimit="1.05" topologyKind="BUS_BREAKER">
            <iidm:busBreakerTopology>
                <iidm:bus id="BUS-30" v="1.052044715174247" angle="-1.5903296745013074"/>
                <iidm:bus id="BUS-1629" v="0.95" angle="3.9794243778764358"/>
            </iidm:busBreakerTopology>
            <iidm:generator id="GEN-1629" energySource="OTHER" minP="140.0" maxP="700.0" voltageRegulatorOn="true" targetP="450.03" targetV="0.95" targetQ="-42.82" bus="BUS-1629" connectableBus="BUS-1629" p="-450.03" q="42.21375903058554">
                <iidm:minMaxReactiveLimits minQ="-190.58" maxQ="231.39"/>
            </iidm:generator>
        </iidm:voltageLevel>
        <iidm:twoWindingsTransformer id="TWT-30-1629" r="0.0" x="1.9737000000000002E-4" g="0.0" b="0.0" ratedU1="1.092105" ratedU2="1.0" bus1="BUS-30" connectableBus1="BUS-30" voltageLevelId1="VL-30" bus2="BUS-1629" connectableBus2="BUS-1629" voltageLevelId2="VL-30" p1="-450.02996507690625" q1="86.89460289785035" p2="450.02996507690636" q2="-42.21375903058554">
            <iidm:apparentPowerLimits1 permanentLimit="550.0">
                <iidm:temporaryLimit name="RateB" acceptableDuration="1200" value="550.0"/>
                <iidm:temporaryLimit name="RateC" acceptableDuration="60" value="550.0"/>
            </iidm:apparentPowerLimits1>
            <iidm:apparentPowerLimits2 permanentLimit="550.0">
                <iidm:temporaryLimit name="RateB" acceptableDuration="1200" value="550.0"/>
                <iidm:temporaryLimit name="RateC" acceptableDuration="60" value="550.0"/>
            </iidm:apparentPowerLimits2>
        </iidm:twoWindingsTransformer>
    </iidm:substation>
    <iidm:substation id="SUB-31">
        <iidm:voltageLevel id="VL-31" nominalV="1.0" lowVoltageLimit="1.00889" highVoltageLimit="1.08444" topologyKind="BUS_BREAKER">
            <iidm:busBreakerTopology>
                <iidm:bus id="BUS-31" v="1.048776618336024" angle="-4.988431928555247"/>
            </iidm:busBreakerTopology>
            <iidm:load id="LOAD-31" loadType="UNDEFINED" p0="21.7" q0="0.9" bus="BUS-31" connectableBus="BUS-31" p="21.7" q="0.9"/>
        </iidm:voltageLevel>
    </iidm:substation>
    <iidm:substation id="SUB-33">
        <iidm:voltageLevel id="VL-33" nominalV="1.0" lowVoltageLimit="1.00889" highVoltageLimit="1.08444" topologyKind="BUS_BREAKER">
            <iidm:busBreakerTopology>
                <iidm:bus id="BUS-33" v="1.0329276186015823" angle="-5.585213477272772"/>
            </iidm:busBreakerTopology>
            <iidm:load id="LOAD-33" loadType="UNDEFINED" p0="68.9" q0="2.6" bus="BUS-33" connectableBus="BUS-33" p="68.9" q="2.6"/>
        </iidm:voltageLevel>
    </iidm:substation>
    <iidm:substation id="SUB-34">
        <iidm:voltageLevel id="VL-34" nominalV="1.0" lowVoltageLimit="1.00444" highVoltageLimit="1.08889" topologyKind="BUS_BREAKER">
            <iidm:busBreakerTopology>
                <iidm:bus id="BUS-34" v="1.0431703537424242" angle="-40.6869863842985"/>
            </iidm:busBreakerTopology>
            <iidm:load id="LOAD-34" loadType="UNDEFINED" p0="50.6" q0="12.7" bus="BUS-34" connectableBus="BUS-34" p="50.6" q="12.7"/>
        </iidm:voltageLevel>
    </iidm:substation>
    <iidm:substation id="SUB-35">
        <iidm:voltageLevel id="VL-35" nominalV="1.0" lowVoltageLimit="0.966667" highVoltageLimit="1.08" topologyKind="BUS_BREAKER">
            <iidm:busBreakerTopology>
                <iidm:bus id="BUS-35" v="1.0232217103046768" angle="-21.669615131346927"/>
            </iidm:busBreakerTopology>
            <iidm:load id="LOAD-35" loadType="UNDEFINED" p0="17.0" q0="2.1" bus="BUS-35" connectableBus="BUS-35" p="17.0" q="2.1"/>
        </iidm:voltageLevel>
    </iidm:substation>
    <iidm:substation id="SUB-36">
        <iidm:voltageLevel id="VL-36" nominalV="1.0" lowVoltageLimit="1.04785" highVoltageLimit="1.09212" topologyKind="BUS_BREAKER">
            <iidm:busBreakerTopology>
                <iidm:bus id="BUS-36" v="1.061617575415263" angle="-30.737218849966897"/>
                <iidm:bus id="BUS-37" v="1.0692115585054005" angle="-28.303739768755065"/>
            </iidm:busBreakerTopology>
            <iidm:load id="LOAD-36" loadType="UNDEFINED" p0="38.2" q0="6.3" bus="BUS-36" connectableBus="BUS-36" p="38.2" q="6.3"/>
        </iidm:voltageLevel>
        <iidm:twoWindingsTransformer id="TWT-36-37" r="3.32E-6" x="2.5E-4" g="0.0" b="0.0" ratedU1="1.001" ratedU2="1.0" bus1="BUS-36" connectableBus1="BUS-36" voltageLevelId1="VL-36" bus2="BUS-37" connectableBus2="BUS-37" voltageLevelId2="VL-36" p1="-192.98847310841595" q1="-30.061184237123822" p2="193.1010746615324" q2="38.540216851276895">
            <iidm:apparentPowerLimits1 permanentLimit="1187.0">
                <iidm:temporaryLimit name="RateB" acceptableDuration="1200" value="1187.0"/>
                <iidm:temporaryLimit name="RateC" acceptableDuration="60" value="1187.0"/>
            </iidm:apparentPowerLimits1>
            <iidm:apparentPowerLimits2 permanentLimit="1187.0">
                <iidm:temporaryLimit name="RateB" acceptableDuration="1200" value="1187.0"/>
                <iidm:temporaryLimit name="RateC" acceptableDuration="60" value="1187.0"/>
            </iidm:apparentPowerLimits2>
        </iidm:twoWindingsTransformer>
    </iidm:substation>
    <iidm:substation id="SUB-38">
        <iidm:voltageLevel id="VL-38" nominalV="1.0" lowVoltageLimit="0.986667" highVoltageLimit="1.08889" topologyKind="BUS_BREAKER">
            <iidm:busBreakerTopology>
                <iidm:bus id="BUS-38" v="1.043875254256006" angle="-38.10063729574145"/>
            </iidm:busBreakerTopology>
            <iidm:load id="LOAD-38" loadType="UNDEFINED" p0="89.0" q0="9.6" bus="BUS-38" connectableBus="BUS-38" p="89.0" q="9.6"/>
        </iidm:voltageLevel>
    </iidm:substation>
    <iidm:substation id="SUB-39">
        <iidm:voltageLevel id="VL-39" nominalV="1.0" lowVoltageLimit="1.02632" highVoltageLimit="1.08889" topologyKind="BUS_BREAKER">
            <iidm:busBreakerTopology>
                <iidm:bus id="BUS-2050" v="1.0251074557763338" angle="-43.081026919304044"/>
                <iidm:bus id="BUS-39" v="1.0290138718777486" angle="-42.25819514782243"/>
                <iidm:bus id="BUS-1551" v="1.0342705567692396" angle="-43.1492490869966"/>
                <iidm:bus id="BUS-1600" v="1.0287509570737923" angle="-43.2200109457215"/>
            </iidm:busBreakerTopology>
            <iidm:load id="LOAD-39" loadType="UNDEFINED" p0="70.9" q0="-2.3" bus="BUS-39" connectableBus="BUS-39" p="70.9" q="-2.3"/>
            <iidm:shunt id="SHUNT-2050" sectionCount="1" voltageRegulatorOn="false" bus="BUS-2050" connectableBus="BUS-2050" p="0.0" q="67.2540989368466">
                <iidm:shuntLinearModel bPerSection="-64.0" maximumSectionCount="1"/>
            </iidm:shunt>
        </iidm:voltageLevel>
        <iidm:twoWindingsTransformer id="TWT-2050-1551" r="1.787E-5" x="8.469500000000001E-4" g="0.0" b="0.0" ratedU1="1.05042" ratedU2="1.0" bus1="BUS-2050" connectableBus1="BUS-2050" voltageLevelId1="VL-39" bus2="BUS-1551" connectableBus2="BUS-1551" voltageLevelId2="VL-39" p1="1.2931576715803546E-7" q1="-67.25409903689751" p2="0.08486890302603713" q2="71.27647323621709"/>
        <iidm:twoWindingsTransformer id="TWT-39-1551" r="1.45E-6" x="-6.302E-5" g="0.0" b="0.0" ratedU1="1.0" ratedU2="1.0" bus1="BUS-39" connectableBus1="BUS-39" voltageLevelId1="VL-39" bus2="BUS-1551" connectableBus2="BUS-1551" voltageLevelId2="VL-39" p1="-264.4158199956218" q1="77.70705318385458" p2="264.519830411759" q2="-82.22756106283788">
            <iidm:apparentPowerLimits1 permanentLimit="1186.0">
                <iidm:temporaryLimit name="RateB" acceptableDuration="1200" value="1186.0"/>
                <iidm:temporaryLimit name="RateC" acceptableDuration="60" value="1186.0"/>
            </iidm:apparentPowerLimits1>
            <iidm:apparentPowerLimits2 permanentLimit="1186.0">
                <iidm:temporaryLimit name="RateB" acceptableDuration="1200" value="1186.0"/>
                <iidm:temporaryLimit name="RateC" acceptableDuration="60" value="1186.0"/>
            </iidm:apparentPowerLimits2>
        </iidm:twoWindingsTransformer>
        <iidm:twoWindingsTransformer id="TWT-39-1600" r="1.25E-6" x="-6.787E-5" g="0.0" b="0.0" ratedU1="1.0" ratedU2="1.0" bus1="BUS-39" connectableBus1="BUS-39" voltageLevelId1="VL-39" bus2="BUS-1600" connectableBus2="BUS-1600" voltageLevelId2="VL-39" p1="-261.61718024125247" q1="-11.002161698562984" p2="261.6981210387398" q2="6.607400157817575">
            <iidm:apparentPowerLimits1 permanentLimit="1187.0">
                <iidm:temporaryLimit name="RateB" acceptableDuration="1200" value="1187.0"/>
                <iidm:temporaryLimit name="RateC" acceptableDuration="60" value="1187.0"/>
            </iidm:apparentPowerLimits1>
            <iidm:apparentPowerLimits2 permanentLimit="1187.0">
                <iidm:temporaryLimit name="RateB" acceptableDuration="1200" value="1187.0"/>
                <iidm:temporaryLimit name="RateC" acceptableDuration="60" value="1187.0"/>
            </iidm:apparentPowerLimits2>
        </iidm:twoWindingsTransformer>
    </iidm:substation>
    <iidm:substation id="SUB-40">
        <iidm:voltageLevel id="VL-40" nominalV="1.0" lowVoltageLimit="1.0" highVoltageLimit="1.10526" topologyKind="BUS_BREAKER">
            <iidm:busBreakerTopology>
                <iidm:bus id="BUS-40" v="1.0345582638529984" angle="-38.708568293185515"/>
            </iidm:busBreakerTopology>
            <iidm:load id="LOAD-40" loadType="UNDEFINED" p0="136.2" q0="-10.7" bus="BUS-40" connectableBus="BUS-40" p="136.2" q="-10.7"/>
        </iidm:voltageLevel>
    </iidm:substation>
    <iidm:substation id="SUB-41">
        <iidm:voltageLevel id="VL-41" nominalV="1.0" lowVoltageLimit="0.933333" highVoltageLimit="1.08889" topologyKind="BUS_BREAKER">
            <iidm:busBreakerTopology>
                <iidm:bus id="BUS-41" v="1.041674496210271" angle="-27.27587448365231"/>
            </iidm:busBreakerTopology>
            <iidm:load id="LOAD-41" loadType="UNDEFINED" p0="64.6" q0="17.3" bus="BUS-41" connectableBus="BUS-41" p="64.6" q="17.3"/>
        </iidm:voltageLevel>
    </iidm:substation>
    <iidm:substation id="SUB-42">
        <iidm:voltageLevel id="VL-42" nominalV="1.0" lowVoltageLimit="0.888889" highVoltageLimit="1.08889" topologyKind="BUS_BREAKER">
            <iidm:busBreakerTopology>
                <iidm:bus id="BUS-42" v="1.0269086585818037" angle="-46.715943469237764"/>
            </iidm:busBreakerTopology>
            <iidm:load id="LOAD-42" loadType="UNDEFINED" p0="13.4" q0="3.3" bus="BUS-42" connectableBus="BUS-42" p="13.4" q="3.3"/>
        </iidm:voltageLevel>
    </iidm:substation>
    <iidm:substation id="SUB-43">
        <iidm:voltageLevel id="VL-43" nominalV="1.0" lowVoltageLimit="0.888889" highVoltageLimit="1.08889" topologyKind="BUS_BREAKER">
            <iidm:busBreakerTopology>
                <iidm:bus id="BUS-43" v="1.0267343306048538" angle="-46.76005318212967"/>
            </iidm:busBreakerTopology>
            <iidm:load id="LOAD-43" loadType="UNDEFINED" p0="33.3" q0="4.7" bus="BUS-43" connectableBus="BUS-43" p="33.3" q="4.7"/>
        </iidm:voltageLevel>
    </iidm:substation>
    <iidm:substation id="SUB-44">
        <iidm:voltageLevel id="VL-44" nominalV="1.0" lowVoltageLimit="1.00444" highVoltageLimit="1.08496" topologyKind="BUS_BREAKER">
            <iidm:busBreakerTopology>
                <iidm:bus id="BUS-44" v="1.0550364611722416" angle="-26.108309496071318"/>
            </iidm:busBreakerTopology>
            <iidm:load id="LOAD-44" loadType="UNDEFINED" p0="211.6" q0="-1.3" bus="BUS-44" connectableBus="BUS-44" p="211.60000000000002" q="-1.3"/>
        </iidm:voltageLevel>
    </iidm:substation>
    <iidm:substation id="SUB-45">
        <iidm:voltageLevel id="VL-45" nominalV="1.0" lowVoltageLimit="1.00444" highVoltageLimit="1.08889" topologyKind="BUS_BREAKER">
            <iidm:busBreakerTopology>
                <iidm:bus id="BUS-45" v="1.0481763949697431" angle="-38.82756987250759"/>
            </iidm:busBreakerTopology>
            <iidm:load id="LOAD-45" loadType="UNDEFINED" p0="92.1" q0="-9.1" bus="BUS-45" connectableBus="BUS-45" p="92.1" q="-9.1"/>
        </iidm:voltageLevel>
    </iidm:substation>
    <iidm:substation id="SUB-46">
        <iidm:voltageLevel id="VL-46" nominalV="1.0" lowVoltageLimit="0.9" highVoltageLimit="1.10843" topologyKind="BUS_BREAKER">
            <iidm:busBreakerTopology>
                <iidm:bus id="BUS-46" v="1.038" angle="-7.660282912565073"/>
            </iidm:busBreakerTopology>
            <iidm:generator id="GEN-46" energySource="OTHER" minP="6.0" maxP="30.0" voltageRegulatorOn="true" targetP="28.0" targetV="1.038" targetQ="-4.0" bus="BUS-46" connectableBus="BUS-46" p="-28.0" q="1.9137517484610018">
                <iidm:minMaxReactiveLimits minQ="-4.0" maxQ="10.0"/>
            </iidm:generator>
        </iidm:voltageLevel>
    </iidm:substation>
    <iidm:substation id="SUB-47">
        <iidm:voltageLevel id="VL-47" nominalV="1.0" lowVoltageLimit="1.00444" highVoltageLimit="1.08889" topologyKind="BUS_BREAKER">
            <iidm:busBreakerTopology>
                <iidm:bus id="BUS-47" v="1.0264267102580633" angle="-41.229724309044904"/>
            </iidm:busBreakerTopology>
        </iidm:voltageLevel>
    </iidm:substation>
    <iidm:substation id="SUB-48">
        <iidm:voltageLevel id="VL-48" nominalV="1.0" lowVoltageLimit="1.00444" highVoltageLimit="1.08889" topologyKind="BUS_BREAKER">
            <iidm:busBreakerTopology>
                <iidm:bus id="BUS-48" v="1.026426496863544" angle="-41.22972310582329"/>
            </iidm:busBreakerTopology>
        </iidm:voltageLevel>
    </iidm:substation>
    <iidm:substation id="SUB-49">
        <iidm:voltageLevel id="VL-49" nominalV="1.0" lowVoltageLimit="1.00444" highVoltageLimit="1.08889" topologyKind="BUS_BREAKER">
            <iidm:busBreakerTopology>
                <iidm:bus id="BUS-49" v="1.0264252673063663" angle="-41.229716172984716"/>
            </iidm:busBreakerTopology>
            <iidm:load id="LOAD-49" loadType="UNDEFINED" p0="63.7" q0="84.5" bus="BUS-49" connectableBus="BUS-49" p="63.7" q="84.5"/>
            <iidm:shunt id="SHUNT-49" sectionCount="1" voltageRegulatorOn="false" bus="BUS-49" connectableBus="BUS-49" p="0.0" q="84.28390634919565">
                <iidm:shuntLinearModel bPerSection="-80.0" maximumSectionCount="1"/>
            </iidm:shunt>
        </iidm:voltageLevel>
    </iidm:substation>
    <iidm:substation id="SUB-50">
        <iidm:voltageLevel id="VL-50" nominalV="1.0" lowVoltageLimit="1.00444" highVoltageLimit="1.08889" topologyKind="BUS_BREAKER">
            <iidm:busBreakerTopology>
                <iidm:bus id="BUS-50" v="1.0364781747587868" angle="-36.14741026795609"/>
            </iidm:busBreakerTopology>
            <iidm:load id="LOAD-50" loadType="UNDEFINED" p0="10.4" q0="6.6" bus="BUS-50" connectableBus="BUS-50" p="10.4" q="6.6"/>
        </iidm:voltageLevel>
    </iidm:substation>
    <iidm:substation id="SUB-51">
        <iidm:voltageLevel id="VL-51" nominalV="1.0" lowVoltageLimit="1.0" highVoltageLimit="1.08889" topologyKind="BUS_BREAKER">
            <iidm:busBreakerTopology>
                <iidm:bus id="BUS-51" v="1.0519146473893377" angle="-17.35641626383926"/>
                <iidm:bus id="BUS-1844" v="0.885" angle="-8.262661786136729"/>
            </iidm:busBreakerTopology>
            <iidm:generator id="GEN-1844" energySource="OTHER" minP="5.4" maxP="27.0" voltageRegulatorOn="true" targetP="26.0" targetV="0.885" targetQ="-13.69" bus="BUS-1844" connectableBus="BUS-1844" p="-26.0" q="17.883894063817483">
                <iidm:minMaxReactiveLimits minQ="-15.38" maxQ="24.62"/>
            </iidm:generator>
        </iidm:voltageLevel>
        <iidm:twoWindingsTransformer id="TWT-51-1844" r="0.0" x="0.0054184" g="0.0" b="0.0" ratedU1="1.044444" ratedU2="1.0" bus1="BUS-51" connectableBus1="BUS-51" voltageLevelId1="VL-51" bus2="BUS-1844" connectableBus2="BUS-1844" voltageLevelId2="VL-51" p1="-25.999395000532832" q1="24.772916605135322" p2="25.99939500053284" q2="-17.883894063817483"/>
    </iidm:substation>
    <iidm:substation id="SUB-52">
        <iidm:voltageLevel id="VL-52" nominalV="1.0" lowVoltageLimit="0.888889" highVoltageLimit="1.08889" topologyKind="BUS_BREAKER">
            <iidm:busBreakerTopology>
                <iidm:bus id="BUS-52" v="1.019261931392894" angle="-46.93601171352486"/>
            </iidm:busBreakerTopology>
            <iidm:load id="LOAD-52" loadType="UNDEFINED" p0="68.7" q0="16.5" bus="BUS-52" connectableBus="BUS-52" p="68.7" q="16.5"/>
        </iidm:voltageLevel>
    </iidm:substation>
    <iidm:substation id="SUB-53">
        <iidm:voltageLevel id="VL-53" nominalV="1.0" lowVoltageLimit="1.0" highVoltageLimit="1.08889" topologyKind="BUS_BREAKER">
            <iidm:busBreakerTopology>
                <iidm:bus id="BUS-53" v="1.010389735478081" angle="-45.3184188451108"/>
                <iidm:bus id="BUS-54" v="1.0137591629987293" angle="-43.225345940117876"/>
            </iidm:busBreakerTopology>
            <iidm:load id="LOAD-53" loadType="UNDEFINED" p0="101.2" q0="15.9" bus="BUS-53" connectableBus="BUS-53" p="101.2" q="15.9"/>
        </iidm:voltageLevel>
        <iidm:twoWindingsTransformer id="TWT-53-54" r="6.65E-6" x="4.8338E-4" g="0.0" b="0.0" ratedU1="0.996016" ratedU2="1.0" bus1="BUS-53" connectableBus1="BUS-53" voltageLevelId1="VL-53" bus2="BUS-54" connectableBus2="BUS-54" voltageLevelId2="VL-53" p1="-77.64866859545656" q1="3.8980777093747596" p2="77.68772907564845" q2="-1.0588213311232926">
            <iidm:apparentPowerLimits1 permanentLimit="606.0">
                <iidm:temporaryLimit name="RateB" acceptableDuration="1200" value="606.0"/>
                <iidm:temporaryLimit name="RateC" acceptableDuration="60" value="606.0"/>
            </iidm:apparentPowerLimits1>
            <iidm:apparentPowerLimits2 permanentLimit="606.0">
                <iidm:temporaryLimit name="RateB" acceptableDuration="1200" value="606.0"/>
                <iidm:temporaryLimit name="RateC" acceptableDuration="60" value="606.0"/>
            </iidm:apparentPowerLimits2>
        </iidm:twoWindingsTransformer>
        <iidm:twoWindingsTransformer id="TWT-53-54#0" r="7.83E-6" x="3.9612E-4" g="0.0" b="0.0" ratedU1="0.996016" ratedU2="1.0" bus1="BUS-53" connectableBus1="BUS-53" voltageLevelId1="VL-53" bus2="BUS-54" connectableBus2="BUS-54" voltageLevelId2="VL-53" p1="-94.713818394704" q1="5.3254022897809845" p2="94.78229055669095" q2="-1.8613929913772347">
            <iidm:apparentPowerLimits1 permanentLimit="606.0">
                <iidm:temporaryLimit name="RateB" acceptableDuration="1200" value="606.0"/>
                <iidm:temporaryLimit name="RateC" acceptableDuration="60" value="606.0"/>
            </iidm:apparentPowerLimits1>
            <iidm:apparentPowerLimits2 permanentLimit="606.0">
                <iidm:temporaryLimit name="RateB" acceptableDuration="1200" value="606.0"/>
                <iidm:temporaryLimit name="RateC" acceptableDuration="60" value="606.0"/>
            </iidm:apparentPowerLimits2>
        </iidm:twoWindingsTransformer>
    </iidm:substation>
    <iidm:substation id="SUB-55">
        <iidm:voltageLevel id="VL-55" nominalV="1.0" lowVoltageLimit="1.00889" highVoltageLimit="1.08444" topologyKind="BUS_BREAKER">
            <iidm:busBreakerTopology>
                <iidm:bus id="BUS-55" v="1.027205613007877" angle="-4.995126405784845"/>
            </iidm:busBreakerTopology>
            <iidm:load id="LOAD-55" loadType="UNDEFINED" p0="28.9" q0="10.6" bus="BUS-55" connectableBus="BUS-55" p="28.9" q="10.6"/>
        </iidm:voltageLevel>
    </iidm:substation>
    <iidm:substation id="SUB-56">
        <iidm:voltageLevel id="VL-56" nominalV="1.0" lowVoltageLimit="1.00889" highVoltageLimit="1.08444" topologyKind="BUS_BREAKER">
            <iidm:busBreakerTopology>
                <iidm:bus id="BUS-56" v="1.027395349305534" angle="-4.996543745221999"/>
            </iidm:busBreakerTopology>
            <iidm:load id="LOAD-56" loadType="UNDEFINED" p0="28.2" q0="2.1" bus="BUS-56" connectableBus="BUS-56" p="28.199999999999996" q="2.1"/>
        </iidm:voltageLevel>
    </iidm:substation>
    <iidm:substation id="SUB-1827">
        <iidm:voltageLevel id="VL-1827" nominalV="1.0" lowVoltageLimit="1.00444" highVoltageLimit="1.08889" topologyKind="BUS_BREAKER">
            <iidm:busBreakerTopology>
                <iidm:bus id="BUS-1827" v="1.0425895901777613" angle="-34.45543294841346"/>
            </iidm:busBreakerTopology>
            <iidm:load id="LOAD-1827" loadType="UNDEFINED" p0="109.6" q0="-12.9" bus="BUS-1827" connectableBus="BUS-1827" p="109.59999999999998" q="-12.9"/>
        </iidm:voltageLevel>
    </iidm:substation>
    <iidm:substation id="SUB-57">
        <iidm:voltageLevel id="VL-57" nominalV="1.0" lowVoltageLimit="0.933333" highVoltageLimit="1.08945" topologyKind="BUS_BREAKER">
            <iidm:busBreakerTopology>
                <iidm:bus id="BUS-57" v="1.0535951595768147" angle="-20.31532100214908"/>
            </iidm:busBreakerTopology>
            <iidm:load id="LOAD-57" loadType="UNDEFINED" p0="27.3" q0="-10.9" bus="BUS-57" connectableBus="BUS-57" p="27.3" q="-10.9"/>
        </iidm:voltageLevel>
    </iidm:substation>
    <iidm:substation id="SUB-58">
        <iidm:voltageLevel id="VL-58" nominalV="1.0" lowVoltageLimit="0.9" highVoltageLimit="1.10862" topologyKind="BUS_BREAKER">
            <iidm:busBreakerTopology>
                <iidm:bus id="BUS-58" v="1.0364823045376368" angle="-7.8702372346618645"/>
            </iidm:busBreakerTopology>
            <iidm:generator id="GEN-58" energySource="OTHER" minP="1.2" maxP="6.0" voltageRegulatorOn="true" targetP="0.0" targetV="1.037" targetQ="0.0" connectableBus="BUS-58">
                <iidm:minMaxReactiveLimits minQ="1.9" maxQ="2.0"/>
            </iidm:generator>
        </iidm:voltageLevel>
    </iidm:substation>
    <iidm:substation id="SUB-59">
        <iidm:voltageLevel id="VL-59" nominalV="1.0" lowVoltageLimit="1.00889" highVoltageLimit="1.08444" topologyKind="BUS_BREAKER">
            <iidm:busBreakerTopology>
                <iidm:bus id="BUS-59" v="1.023414718306342" angle="-1.880705939570297"/>
            </iidm:busBreakerTopology>
            <iidm:load id="LOAD-59" loadType="UNDEFINED" p0="36.8" q0="20.3" bus="BUS-59" connectableBus="BUS-59" p="36.8" q="20.3"/>
        </iidm:voltageLevel>
    </iidm:substation>
    <iidm:substation id="SUB-60">
        <iidm:voltageLevel id="VL-60" nominalV="1.0" lowVoltageLimit="1.00889" highVoltageLimit="1.08444" topologyKind="BUS_BREAKER">
            <iidm:busBreakerTopology>
                <iidm:bus id="BUS-60" v="1.023243295899135" angle="-1.878620885365771"/>
            </iidm:busBreakerTopology>
            <iidm:load id="LOAD-60" loadType="UNDEFINED" p0="36.5" q0="30.8" bus="BUS-60" connectableBus="BUS-60" p="36.5" q="30.8"/>
        </iidm:voltageLevel>
    </iidm:substation>
    <iidm:substation id="SUB-61">
        <iidm:voltageLevel id="VL-61" nominalV="1.0" lowVoltageLimit="0.977778" highVoltageLimit="1.05" topologyKind="BUS_BREAKER">
            <iidm:busBreakerTopology>
                <iidm:bus id="BUS-61" v="1.0252136201309643" angle="-2.7131648337830474"/>
                <iidm:bus id="BUS-1630" v="0.928" angle="5.246504697794652"/>
                <iidm:bus id="BUS-1631" v="0.93" angle="-1.2790182451612937"/>
            </iidm:busBreakerTopology>
            <iidm:generator id="GEN-1630" energySource="OTHER" minP="17.2" maxP="86.0" voltageRegulatorOn="true" targetP="83.0" targetV="0.928" targetQ="8.77" bus="BUS-1630" connectableBus="BUS-1630" p="-83.0" q="-9.222421992452382">
                <iidm:minMaxReactiveLimits minQ="-8.5" maxQ="43.86"/>
            </iidm:generator>
            <iidm:generator id="GEN-1631" energySource="OTHER" minP="9.8" maxP="49.0" voltageRegulatorOn="true" targetP="9.8" targetV="0.93" targetQ="3.09" bus="BUS-1631" connectableBus="BUS-1631" p="-9.8" q="-3.223794765074497">
                <iidm:minMaxReactiveLimits minQ="-9.73" maxQ="22.19"/>
            </iidm:generator>
        </iidm:voltageLevel>
        <iidm:twoWindingsTransformer id="TWT-61-1630" r="0.0" x="0.00142857" g="0.0" b="0.0" ratedU1="1.111111" ratedU2="1.0" bus1="BUS-61" connectableBus1="BUS-61" voltageLevelId1="VL-61" bus2="BUS-1630" connectableBus2="BUS-1630" voltageLevelId2="VL-61" p1="-82.99996996034933" q1="2.3464365404803607" p2="82.99996996034933" q2="9.222421992452382"/>
        <iidm:twoWindingsTransformer id="TWT-61-1631" r="0.0" x="0.0021914900000000004" g="0.0" b="0.0" ratedU1="1.111111" ratedU2="1.0" bus1="BUS-61" connectableBus1="BUS-61" voltageLevelId1="VL-61" bus2="BUS-1631" connectableBus2="BUS-1631" voltageLevelId2="VL-61" p1="-9.799996858638234" q1="-2.9541145738336074" p2="9.799996858638234" q2="3.223794765074497"/>
    </iidm:substation>
    <iidm:substation id="SUB-62">
        <iidm:voltageLevel id="VL-62" nominalV="1.0" lowVoltageLimit="0.888889" highVoltageLimit="1.08889" topologyKind="BUS_BREAKER">
            <iidm:busBreakerTopology>
                <iidm:bus id="BUS-62" v="1.028540458117805" angle="-44.80534322776603"/>
            </iidm:busBreakerTopology>
            <iidm:load id="LOAD-62" loadType="UNDEFINED" p0="8.4" q0="-0.3" bus="BUS-62" connectableBus="BUS-62" p="8.4" q="-0.3"/>
        </iidm:voltageLevel>
    </iidm:substation>
    <iidm:substation id="SUB-63">
        <iidm:voltageLevel id="VL-63" nominalV="1.0" lowVoltageLimit="0.933333" highVoltageLimit="1.08889" topologyKind="BUS_BREAKER">
            <iidm:busBreakerTopology>
                <iidm:bus id="BUS-63" v="1.0674776435317244" angle="-26.383945358940373"/>
            </iidm:busBreakerTopology>
            <iidm:load id="LOAD-63" loadType="UNDEFINED" p0="13.2" q0="-6.3" bus="BUS-63" connectableBus="BUS-63" p="13.200000000000001" q="-6.3"/>
        </iidm:voltageLevel>
    </iidm:substation>
    <iidm:substation id="SUB-64">
        <iidm:voltageLevel id="VL-64" nominalV="1.0" lowVoltageLimit="1.00444" highVoltageLimit="1.08889" topologyKind="BUS_BREAKER">
            <iidm:busBreakerTopology>
                <iidm:bus id="BUS-64" v="1.0224369754365108" angle="-40.44250550725278"/>
            </iidm:busBreakerTopology>
            <iidm:load id="LOAD-64" loadType="UNDEFINED" p0="13.2" q0="3.3" bus="BUS-64" connectableBus="BUS-64" p="13.200000000000001" q="3.3"/>
        </iidm:voltageLevel>
    </iidm:substation>
    <iidm:substation id="SUB-65">
        <iidm:voltageLevel id="VL-65" nominalV="1.0" lowVoltageLimit="1.00444" highVoltageLimit="1.08889" topologyKind="BUS_BREAKER">
            <iidm:busBreakerTopology>
                <iidm:bus id="BUS-65" v="1.0480654468063686" angle="-36.498646621794414"/>
            </iidm:busBreakerTopology>
            <iidm:load id="LOAD-65" loadType="UNDEFINED" p0="22.7" q0="2.5" bus="BUS-65" connectableBus="BUS-65" p="22.7" q="2.5"/>
        </iidm:voltageLevel>
    </iidm:substation>
    <iidm:substation id="SUB-66">
        <iidm:voltageLevel id="VL-66" nominalV="1.0" lowVoltageLimit="1.0" highVoltageLimit="1.08889" topologyKind="BUS_BREAKER">
            <iidm:busBreakerTopology>
                <iidm:bus id="BUS-66" v="1.0547016902832114" angle="-17.631366766819937"/>
            </iidm:busBreakerTopology>
            <iidm:load id="LOAD-66" loadType="UNDEFINED" p0="11.4" q0="-9.7" bus="BUS-66" connectableBus="BUS-66" p="11.4" q="-9.7"/>
        </iidm:voltageLevel>
    </iidm:substation>
    <iidm:substation id="SUB-67">
        <iidm:voltageLevel id="VL-67" nominalV="1.0" lowVoltageLimit="0.986667" highVoltageLimit="1.08889" topologyKind="BUS_BREAKER">
            <iidm:busBreakerTopology>
                <iidm:bus id="BUS-67" v="1.0389365853525894" angle="-32.650018616172716"/>
            </iidm:busBreakerTopology>
            <iidm:load id="LOAD-67" loadType="UNDEFINED" p0="10.2" q0="-1.3" bus="BUS-67" connectableBus="BUS-67" p="10.2" q="-1.3"/>
        </iidm:voltageLevel>
    </iidm:substation>
    <iidm:substation id="SUB-68">
        <iidm:voltageLevel id="VL-68" nominalV="1.0" lowVoltageLimit="1.01316" highVoltageLimit="1.08889" topologyKind="BUS_BREAKER">
            <iidm:busBreakerTopology>
                <iidm:bus id="BUS-68" v="1.0297060263555569" angle="-46.230114137580905"/>
                <iidm:bus id="BUS-69" v="1.0237332322014063" angle="-46.46893549084707"/>
                <iidm:bus id="BUS-70" v="1.031883454467248" angle="-44.41058003006053"/>
            </iidm:busBreakerTopology>
        </iidm:voltageLevel>
        <iidm:twoWindingsTransformer id="TWT-68-70" r="3.4600000000000003E-6" x="2.5139000000000004E-4" g="0.0" b="0.0" ratedU1="1.0" ratedU2="1.0" bus1="BUS-68" connectableBus1="BUS-68" voltageLevelId1="VL-68" bus2="BUS-70" connectableBus2="BUS-70" voltageLevelId2="VL-68" p1="-134.27044688357032" q1="-4.939723087121966" p2="134.32935808230147" q2="9.21997922851665">
            <iidm:apparentPowerLimits1 permanentLimit="1186.0">
                <iidm:temporaryLimit name="RateB" acceptableDuration="1200" value="1186.0"/>
                <iidm:temporaryLimit name="RateC" acceptableDuration="60" value="1186.0"/>
            </iidm:apparentPowerLimits1>
            <iidm:apparentPowerLimits2 permanentLimit="1186.0">
                <iidm:temporaryLimit name="RateB" acceptableDuration="1200" value="1186.0"/>
                <iidm:temporaryLimit name="RateC" acceptableDuration="60" value="1186.0"/>
            </iidm:apparentPowerLimits2>
        </iidm:twoWindingsTransformer>
        <iidm:twoWindingsTransformer id="TWT-68-70#0" r="3.39E-6" x="2.4931E-4" g="0.0" b="0.0" ratedU1="1.0" ratedU2="1.0" bus1="BUS-68" connectableBus1="BUS-68" voltageLevelId1="VL-68" bus2="BUS-70" connectableBus2="BUS-70" voltageLevelId2="VL-68" p1="-135.3901478475487" q1="-5.003409938973269" p2="135.4488345934755" q2="9.319395964660709">
            <iidm:apparentPowerLimits1 permanentLimit="1186.0">
                <iidm:temporaryLimit name="RateB" acceptableDuration="1200" value="1186.0"/>
                <iidm:temporaryLimit name="RateC" acceptableDuration="60" value="1186.0"/>
            </iidm:apparentPowerLimits1>
            <iidm:apparentPowerLimits2 permanentLimit="1186.0">
                <iidm:temporaryLimit name="RateB" acceptableDuration="1200" value="1186.0"/>
                <iidm:temporaryLimit name="RateC" acceptableDuration="60" value="1186.0"/>
            </iidm:apparentPowerLimits2>
        </iidm:twoWindingsTransformer>
        <iidm:twoWindingsTransformer id="TWT-69-70" r="3.39E-6" x="2.4931E-4" g="0.0" b="0.0" ratedU1="1.0" ratedU2="1.0" bus1="BUS-69" connectableBus1="BUS-69" voltageLevelId1="VL-68" bus2="BUS-70" connectableBus2="BUS-70" voltageLevelId2="VL-68" p1="-152.57826523887158" q1="-28.658307433349385" p2="152.65622469976975" q2="34.391662358597166">
            <iidm:apparentPowerLimits1 permanentLimit="1186.0">
                <iidm:temporaryLimit name="RateB" acceptableDuration="1200" value="1186.0"/>
                <iidm:temporaryLimit name="RateC" acceptableDuration="60" value="1186.0"/>
            </iidm:apparentPowerLimits1>
            <iidm:apparentPowerLimits2 permanentLimit="1186.0">
                <iidm:temporaryLimit name="RateB" acceptableDuration="1200" value="1186.0"/>
                <iidm:temporaryLimit name="RateC" acceptableDuration="60" value="1186.0"/>
            </iidm:apparentPowerLimits2>
        </iidm:twoWindingsTransformer>
    </iidm:substation>
    <iidm:substation id="SUB-71">
        <iidm:voltageLevel id="VL-71" nominalV="1.0" lowVoltageLimit="1.00444" highVoltageLimit="1.08889" topologyKind="BUS_BREAKER">
            <iidm:busBreakerTopology>
                <iidm:bus id="BUS-71" v="1.0366310892420967" angle="-40.99963269524737"/>
            </iidm:busBreakerTopology>
            <iidm:load id="LOAD-71" loadType="UNDEFINED" p0="39.2" q0="2.8" bus="BUS-71" connectableBus="BUS-71" p="39.2" q="2.8"/>
        </iidm:voltageLevel>
    </iidm:substation>
    <iidm:substation id="SUB-72">
        <iidm:voltageLevel id="VL-72" nominalV="1.0" lowVoltageLimit="1.00444" highVoltageLimit="1.08889" topologyKind="BUS_BREAKER">
            <iidm:busBreakerTopology>
                <iidm:bus id="BUS-72" v="1.0356883688383398" angle="-39.97449006914009"/>
            </iidm:busBreakerTopology>
            <iidm:load id="LOAD-72" loadType="UNDEFINED" p0="19.3" q0="3.3" bus="BUS-72" connectableBus="BUS-72" p="19.3" q="3.3"/>
            <iidm:shunt id="SHUNT-72" sectionCount="1" voltageRegulatorOn="false" bus="BUS-72" connectableBus="BUS-72" p="0.0" q="85.81203178776167">
                <iidm:shuntLinearModel bPerSection="-80.0" maximumSectionCount="1"/>
            </iidm:shunt>
        </iidm:voltageLevel>
    </iidm:substation>
    <iidm:substation id="SUB-73">
        <iidm:voltageLevel id="VL-73" nominalV="1.0" lowVoltageLimit="0.977778" highVoltageLimit="1.08889" topologyKind="BUS_BREAKER">
            <iidm:busBreakerTopology>
                <iidm:bus id="BUS-73" v="1.0433180740750778" angle="-5.3372251108203566"/>
                <iidm:bus id="BUS-1846" v="1.034" angle="0.5172086132158906"/>
                <iidm:bus id="BUS-1632" v="1.034" angle="0.5172086132158906"/>
            </iidm:busBreakerTopology>
            <iidm:generator id="GEN-1846" energySource="OTHER" minP="6.4" maxP="32.0" voltageRegulatorOn="true" targetP="30.0" targetV="1.034" targetQ="-1.12" bus="BUS-1846" connectableBus="BUS-1846" p="-30.0" q="1.092762338975453">
                <iidm:minMaxReactiveLimits minQ="-8.36" maxQ="8.36"/>
            </iidm:generator>
            <iidm:generator id="GEN-1632" energySource="OTHER" minP="6.4" maxP="32.0" voltageRegulatorOn="true" targetP="30.0" targetV="1.034" targetQ="-1.12" bus="BUS-1632" connectableBus="BUS-1632" p="-30.0" q="1.092762338975453">
                <iidm:minMaxReactiveLimits minQ="-8.36" maxQ="8.36"/>
            </iidm:generator>
        </iidm:voltageLevel>
        <iidm:twoWindingsTransformer id="TWT-73-1846" r="0.0" x="0.00366794" g="0.0" b="0.0" ratedU1="1.0" ratedU2="1.0" bus1="BUS-73" connectableBus1="BUS-73" voltageLevelId1="VL-73" bus2="BUS-1846" connectableBus2="BUS-1846" voltageLevelId2="VL-73" p1="-30.000005266934583" q1="4.184478753226062" p2="30.000005266934576" q2="-1.092762338975453"/>
        <iidm:twoWindingsTransformer id="TWT-73-1632" r="0.0" x="0.00366794" g="0.0" b="0.0" ratedU1="1.0" ratedU2="1.0" bus1="BUS-73" connectableBus1="BUS-73" voltageLevelId1="VL-73" bus2="BUS-1632" connectableBus2="BUS-1632" voltageLevelId2="VL-73" p1="-30.000005266934583" q1="4.184478753226062" p2="30.000005266934576" q2="-1.092762338975453"/>
    </iidm:substation>
    <iidm:substation id="SUB-74">
        <iidm:voltageLevel id="VL-74" nominalV="1.0" lowVoltageLimit="0.977778" highVoltageLimit="1.08889" topologyKind="BUS_BREAKER">
            <iidm:busBreakerTopology>
                <iidm:bus id="BUS-74" v="1.0433274248378923" angle="-5.336542777868045"/>
                <iidm:bus id="BUS-1847" v="1.034" angle="0.517838292887985"/>
                <iidm:bus id="BUS-1848" v="1.034" angle="0.517838292887985"/>
            </iidm:busBreakerTopology>
            <iidm:generator id="GEN-1847" energySource="OTHER" minP="6.4" maxP="32.0" voltageRegulatorOn="true" targetP="30.0" targetV="1.034" targetQ="-1.06" bus="BUS-1847" connectableBus="BUS-1847" p="-30.0" q="1.0954121592883856">
                <iidm:minMaxReactiveLimits minQ="-8.57" maxQ="8.15"/>
            </iidm:generator>
            <iidm:generator id="GEN-1848" energySource="OTHER" minP="6.4" maxP="32.0" voltageRegulatorOn="true" targetP="30.0" targetV="1.034" targetQ="-1.06" bus="BUS-1848" connectableBus="BUS-1848" p="-30.0" q="1.0954121592883856">
                <iidm:minMaxReactiveLimits minQ="-8.57" maxQ="8.15"/>
            </iidm:generator>
        </iidm:voltageLevel>
        <iidm:twoWindingsTransformer id="TWT-74-1847" r="0.0" x="0.00366794" g="0.0" b="0.0" ratedU1="1.0" ratedU2="1.0" bus1="BUS-74" connectableBus1="BUS-74" voltageLevelId1="VL-74" bus2="BUS-1847" connectableBus2="BUS-1847" voltageLevelId2="VL-74" p1="-30.00000526754143" q1="4.187148465713002" p2="30.00000526754143" q2="-1.0954121592883856"/>
        <iidm:twoWindingsTransformer id="TWT-74-1848" r="0.0" x="0.00366794" g="0.0" b="0.0" ratedU1="1.0" ratedU2="1.0" bus1="BUS-74" connectableBus1="BUS-74" voltageLevelId1="VL-74" bus2="BUS-1848" connectableBus2="BUS-1848" voltageLevelId2="VL-74" p1="-30.00000526754143" q1="4.187148465713002" p2="30.00000526754143" q2="-1.0954121592883856"/>
    </iidm:substation>
    <iidm:substation id="SUB-75">
        <iidm:voltageLevel id="VL-75" nominalV="1.0" lowVoltageLimit="1.00889" highVoltageLimit="1.08444" topologyKind="BUS_BREAKER">
            <iidm:busBreakerTopology>
                <iidm:bus id="BUS-75" v="1.041622482193788" angle="-5.818899174816672"/>
            </iidm:busBreakerTopology>
            <iidm:load id="LOAD-75" loadType="UNDEFINED" p0="131.9" q0="3.2" bus="BUS-75" connectableBus="BUS-75" p="131.9" q="3.2"/>
        </iidm:voltageLevel>
    </iidm:substation>
    <iidm:substation id="SUB-76">
        <iidm:voltageLevel id="VL-76" nominalV="1.0" lowVoltageLimit="1.04211" highVoltageLimit="1.08444" topologyKind="BUS_BREAKER">
            <iidm:busBreakerTopology>
                <iidm:bus id="BUS-76" v="1.0514076383474793" angle="-21.54465951440615"/>
                <iidm:bus id="BUS-77" v="1.047999706654443" angle="-16.645125547265646"/>
            </iidm:busBreakerTopology>
        </iidm:voltageLevel>
        <iidm:twoWindingsTransformer id="TWT-76-77" r="8.03E-6" x="4.2451999999999995E-4" g="0.0" b="0.0" ratedU1="0.996016" ratedU2="1.0" bus1="BUS-76" connectableBus1="BUS-76" voltageLevelId1="VL-76" bus2="BUS-77" connectableBus2="BUS-77" voltageLevelId2="VL-76" p1="-221.95436912927397" q1="32.65232437345585" p2="222.31705624477968" q2="-13.47823542270846">
            <iidm:apparentPowerLimits1 permanentLimit="600.0">
                <iidm:temporaryLimit name="RateB" acceptableDuration="1200" value="600.0"/>
                <iidm:temporaryLimit name="RateC" acceptableDuration="60" value="600.0"/>
            </iidm:apparentPowerLimits1>
            <iidm:apparentPowerLimits2 permanentLimit="600.0">
                <iidm:temporaryLimit name="RateB" acceptableDuration="1200" value="600.0"/>
                <iidm:temporaryLimit name="RateC" acceptableDuration="60" value="600.0"/>
            </iidm:apparentPowerLimits2>
        </iidm:twoWindingsTransformer>
    </iidm:substation>
    <iidm:substation id="SUB-78">
        <iidm:voltageLevel id="VL-78" nominalV="1.0" lowVoltageLimit="1.00444" highVoltageLimit="1.08444" topologyKind="BUS_BREAKER">
            <iidm:busBreakerTopology>
                <iidm:bus id="BUS-78" v="1.0513179671498767" angle="-21.593951468083603"/>
            </iidm:busBreakerTopology>
            <iidm:load id="LOAD-78" loadType="UNDEFINED" p0="94.6" q0="-1.9" bus="BUS-78" connectableBus="BUS-78" p="94.6" q="-1.9"/>
        </iidm:voltageLevel>
    </iidm:substation>
    <iidm:substation id="SUB-79">
        <iidm:voltageLevel id="VL-79" nominalV="1.0" lowVoltageLimit="1.00444" highVoltageLimit="1.08936" topologyKind="BUS_BREAKER">
            <iidm:busBreakerTopology>
                <iidm:bus id="BUS-79" v="1.0233888349976423" angle="-40.209824397417805"/>
            </iidm:busBreakerTopology>
            <iidm:load id="LOAD-79" loadType="UNDEFINED" p0="-1.7" q0="-4.6" bus="BUS-79" connectableBus="BUS-79" p="-1.7000000000000002" q="-4.6"/>
        </iidm:voltageLevel>
    </iidm:substation>
    <iidm:substation id="SUB-80">
        <iidm:voltageLevel id="VL-80" nominalV="1.0" lowVoltageLimit="1.00444" highVoltageLimit="1.08936" topologyKind="BUS_BREAKER">
            <iidm:busBreakerTopology>
                <iidm:bus id="BUS-80" v="1.0233890715078762" angle="-40.21391279376118"/>
            </iidm:busBreakerTopology>
            <iidm:load id="LOAD-80" loadType="UNDEFINED" p0="3.6" q0="-7.2" bus="BUS-80" connectableBus="BUS-80" p="3.6000000000000005" q="-7.2"/>
        </iidm:voltageLevel>
    </iidm:substation>
    <iidm:substation id="SUB-81">
...